Circuit: * C:\Users\tibra\Documents\LTspiceXVII\3EL08\IV-cmos.asc


voh: MAX(v(y))=3 FROM 0 TO 5
vol: MIN(v(y))=3.81587e-008 FROM 0 TO 5
vih: v(y)=0.06433 at 1.80007
vil: v(y)=2.93918 at 1.65909
nh(voh-vih)=5 FROM 0 TO 5
nil(vil-vol)=5 FROM 0 TO 5


Date: Fri Apr 15 08:09:43 2022
Total elapsed time: 0.118 seconds.

tnom = 27
temp = 27
method = trap
totiter = 1028
traniter = 0
tranpoints = 0
accept = 0
rejected = 0
matrix size = 5
fillins = 0
solver = Normal
Matrix Compiler1: 132 bytes object code size  0.0/0.0/[0.0]
Matrix Compiler2: off  [0.0]/0.0/0.0

