Circuit: * C:\Users\tibra\Documents\LTspiceXVII\3EL08\IV-nmos.asc

Model "pmos": Oxide thickness thinner than recommended for a level 1 MOSFET.
.dc sweep increment has wrong sign -- fixing...
.dc sweep increment has wrong sign -- fixing...
.OP point found by inspection.
.step vgs=0
.step vgs=-0.3
.step vgs=-0.6
.step vgs=-0.9
.step vgs=-1.2
.step vgs=-1.5
.step vgs=-1.8

Date: Fri Apr 15 07:38:21 2022
Total elapsed time: 0.138 seconds.

tnom = 27
temp = 27
method = trap
totiter = 107
traniter = 0
tranpoints = 0
accept = 0
rejected = 0
matrix size = 5
fillins = 0
solver = Normal
Matrix Compiler1: 114 bytes object code size  0.1/0.1/[0.1]
Matrix Compiler2: off  [0.1]/0.1/0.1

